Questionable use of curly braces in ".model sir870adp vdmos(rg=3 vto=2.9 rd=3.2m rs=1.5m rb={m} kp=100 mtriode=1.85 cgdmax=1.4n cgdmin=70p cgs=2.9n cjo=3.6n m=.4 a=.7 vj=.7 lambda=20m is=3p ksubthres=.08 mfg=siliconix vds=100 ron=5.5m qg=53.5n)"
    Error: undefined symbol in: "[m]"
Circuit: * X:\Embedded\data\Draft1.asc

Limiting rise time of source v3 to 0.0004
Limiting fall time of source v3 to 0.0004
Direct Newton iteration for .op point succeeded.

Date: Thu Aug 24 13:14:14 2023
Total elapsed time: 1.789 seconds.

tnom = 27
temp = 27
method = modified trap
totiter = 374646
traniter = 374640
tranpoints = 121717
accept = 87079
rejected = 34638
matrix size = 9
fillins = 0
solver = Normal
Matrix Compiler1: 430 bytes object code size  0.1/0.1/[0.1]
Matrix Compiler2: 647 bytes object code size  0.1/0.1/[0.1]


